Version 4
SHEET 1 1336 724
WIRE 480 -336 400 -400
WIRE 480 -336 -48 -336
WIRE 400 -272 480 -336
WIRE -32 -240 -336 -240
WIRE -32 -208 -32 -240
WIRE -32 -208 -80 -208
WIRE 32 -208 -32 -208
WIRE -80 -192 -80 -208
WIRE 32 -192 32 -208
WIRE -336 -144 -336 -240
WIRE -80 -112 -80 -128
WIRE -80 -112 -240 -112
WIRE 32 -112 32 -128
WIRE 288 -112 288 -160
WIRE 288 -112 32 -112
WIRE 640 -112 288 -112
WIRE 752 -112 752 -176
WIRE 752 -112 720 -112
WIRE 784 -112 752 -112
WIRE 880 -112 848 -112
WIRE 992 -112 992 -144
WIRE 992 -112 880 -112
WIRE 1088 -112 992 -112
WIRE 1168 -112 1088 -112
WIRE 1280 -112 1168 -112
WIRE -80 -96 -80 -112
WIRE 32 -96 32 -112
WIRE 288 -96 288 -112
WIRE -32 -32 -80 -32
WIRE 32 -32 -32 -32
WIRE 560 -32 496 -32
WIRE 688 -32 560 -32
WIRE 688 -16 688 -32
WIRE 288 0 288 -16
WIRE 416 0 288 0
WIRE 880 0 880 -112
WIRE -336 16 -336 -64
WIRE -32 16 -32 -32
WIRE -32 16 -336 16
WIRE 416 16 416 0
WIRE -240 32 -240 -112
WIRE 96 32 -240 32
WIRE 96 48 96 32
WIRE 288 48 288 0
WIRE -240 80 -240 32
WIRE 560 80 560 -32
WIRE 688 80 688 48
WIRE 416 96 416 80
WIRE 1280 112 1280 -112
WIRE 496 128 496 -32
WIRE 496 128 368 128
WIRE 16 144 -176 144
WIRE 992 144 992 -112
WIRE 1088 144 1088 -112
WIRE 1168 144 1168 -112
WIRE -240 176 -240 160
WIRE 560 176 560 144
WIRE 560 176 448 176
WIRE 688 176 688 160
WIRE 688 176 560 176
WIRE 880 176 880 80
WIRE 880 176 688 176
WIRE -176 192 -176 144
WIRE 448 208 448 176
WIRE 448 208 368 208
WIRE 752 208 752 -112
WIRE -16 272 -112 272
WIRE 16 272 -16 272
WIRE -112 288 -112 272
WIRE 512 288 368 288
WIRE 704 288 592 288
WIRE 880 288 880 176
WIRE -112 384 -112 352
WIRE -16 384 -16 272
WIRE 192 416 192 368
WIRE 752 416 752 304
WIRE 752 416 192 416
WIRE 880 416 880 368
WIRE 880 416 752 416
WIRE 992 416 992 208
WIRE 992 416 880 416
WIRE 1088 416 1088 208
WIRE 1088 416 992 416
WIRE 1168 416 1168 208
WIRE 1168 416 1088 416
WIRE 1280 416 1280 192
WIRE 1280 416 1168 416
WIRE -112 480 -112 464
WIRE -16 480 -16 448
WIRE -16 480 -112 480
WIRE 192 480 192 416
WIRE 192 480 -16 480
WIRE 192 512 192 480
FLAG 192 512 0
FLAG 992 -144 out
FLAG 416 96 0
FLAG -176 272 0
FLAG -240 176 0
FLAG 752 -176 VSW
FLAG 288 -160 INdc
SYMBOL PowerProducts\\LT1249 192 208 R0
SYMATTR InstName U1
SYMBOL ind 736 -128 R90
WINDOW 0 5 56 VBottom 2
WINDOW 3 32 56 VTop 2
SYMATTR InstName L1
SYMATTR Value 750µ
SYMBOL nmos 704 208 R0
WINDOW 3 -37 112 Left 2
SYMATTR InstName M1
SYMATTR Value BSC024NE2LS
SYMBOL res 608 272 R90
WINDOW 0 0 56 VBottom 2
WINDOW 3 32 56 VTop 2
SYMATTR InstName R1
SYMATTR Value 1
SYMBOL schottky 784 -96 R270
WINDOW 0 32 32 VTop 2
WINDOW 3 0 32 VBottom 2
SYMATTR InstName D1
SYMATTR Value 1N5817
SYMATTR Description Diode
SYMATTR Type diode
SYMBOL res 864 -16 R0
SYMATTR InstName R2
SYMATTR Value 1Meg
SYMBOL res 864 272 R0
SYMATTR InstName R3
SYMATTR Value 20K
SYMBOL polcap 976 144 R0
WINDOW 3 24 56 Left 2
SYMATTR InstName C1
SYMATTR Value 22µ
SYMATTR Description Capacitor
SYMATTR Type cap
SYMATTR SpiceLine V=400 Irms=162m Rser=0.4083 Lser=4.41n mfg="Würth Elektronik" pn="860021375012 WCAP-ATG5 10x25" type="Al electrolytic"
SYMBOL polcap 1072 144 R0
WINDOW 3 24 56 Left 2
SYMATTR InstName C2
SYMATTR Value 22µ
SYMATTR Description Capacitor
SYMATTR Type cap
SYMATTR SpiceLine V=400 Irms=162m Rser=0.4083 Lser=4.41n mfg="Würth Elektronik" pn="860021375012 WCAP-ATG5 10x25" type="Al electrolytic"
SYMBOL polcap 1152 144 R0
WINDOW 3 24 56 Left 2
SYMATTR InstName C3
SYMATTR Value 22µ
SYMATTR Description Capacitor
SYMATTR Type cap
SYMATTR SpiceLine V=400 Irms=162m Rser=0.4083 Lser=4.41n mfg="Würth Elektronik" pn="860021375012 WCAP-ATG5 10x25" type="Al electrolytic"
SYMBOL res 1264 96 R0
SYMATTR InstName R4
SYMATTR Value 1k
SYMBOL res 704 176 R180
WINDOW 0 36 76 Left 2
WINDOW 3 36 40 Left 2
SYMATTR InstName R5
SYMATTR Value 330K
SYMBOL cap 672 -16 R0
SYMATTR InstName C4
SYMATTR Value 0.047µ
SYMBOL cap 544 80 R0
WINDOW 3 27 -23 Left 2
SYMATTR InstName C5
SYMATTR Value 0.047µ
SYMBOL res 272 -112 R0
SYMATTR InstName R6
SYMATTR Value 1Meg
SYMBOL cap 400 16 R0
SYMATTR InstName C6
SYMATTR Value 470p
SYMBOL voltage -176 176 R0
SYMATTR InstName V1
SYMATTR Value 18
SYMBOL cap -32 384 R0
SYMATTR InstName C7
SYMATTR Value 10p
SYMBOL res -128 368 R0
SYMATTR InstName R7
SYMATTR Value 10k
SYMBOL cap -128 288 R0
SYMATTR InstName C8
SYMATTR Value 100p
SYMBOL voltage -336 -160 R0
WINDOW 123 0 0 Left 0
WINDOW 39 0 0 Left 0
SYMATTR InstName V2
SYMATTR Value SINE(0 165 600)
SYMBOL diode -64 -128 R180
WINDOW 0 24 64 Left 2
WINDOW 3 24 0 Left 2
SYMATTR InstName D2
SYMATTR Value 1N914
SYMBOL diode 48 -32 R180
WINDOW 0 24 64 Left 2
WINDOW 3 24 0 Left 2
SYMATTR InstName D3
SYMATTR Value 1N914
SYMBOL diode -96 -96 R0
SYMATTR InstName D4
SYMATTR Value 1N914
SYMBOL diode 16 -192 R0
SYMATTR InstName D5
SYMATTR Value 1N914
SYMBOL res -256 64 R0
WINDOW 0 40 18 Left 2
WINDOW 3 37 57 Left 2
SYMATTR InstName R8
SYMATTR Value 200m
TEXT 536 -48 Left 2 ;BY DATASHEET
TEXT 800 120 Left 2 ;BY DATASHEET
TEXT 568 -320 Left 7 ;DC
TEXT -256 -336 Left 7 ;AC
TEXT -104 240 Left 2 ;TYPE2
TEXT 0 504 Left 2 ;is very low
TEXT 1024 -152 Left 2 !.ic V(out)=385
TEXT 414 366 Left 2 !.tran 0 10m 9m uic
LINE Normal 192 560 192 -272 1
